Circuit: * C:\Users\kylew\Documents\GitHub\Lifting-Body\Pyro Tester\SPICE Sims\DarlingtonPairPractice.asc

WARNING: Node NC_04 is floating.

WARNING: Less than two connections to node NC_01.  This node is used by Q2.
WARNING: Less than two connections to node NC_02.  This node is used by Q2.
WARNING: Less than two connections to node NC_03.  This node is used by V2.
WARNING: Less than two connections to node NC_04.  This node is used by R2.
Direct Newton iteration for .op point succeeded.

Date: Sat May 29 13:44:10 2021
Total elapsed time: 0.031 seconds.

tnom = 27
temp = 27
method = modified trap
totiter = 2118
traniter = 2088
tranpoints = 1045
accept = 1045
rejected = 0
matrix size = 17
fillins = 0
solver = Normal
Matrix Compiler1: 962 bytes object code size  0.2/0.1/[0.1]
Matrix Compiler2: off  [0.1]/0.1/0.1

