Circuit: * C:\Users\kylew\Documents\GitHub\Lifting-Body\Forerunner\Pyro Test Board\SPICE Sims\Diff_Amp_2_Ramp_Test.asc

Limiting fall time of source v5 to 0.0005
Direct Newton iteration failed to find .op point.  (Use ".option noopiter" to skip.)
Starting Gmin stepping
Gmin = 10
Gmin = 1.07374
Gmin = 0.115292
Gmin = 0.0123794
Gmin = 0.00132923
Gmin = 0.000142725
Gmin = 1.5325e-005
Gmin = 1.6455e-006
Gmin = 1.76685e-007
Gmin = 1.89714e-008
Gmin = 2.03704e-009
Gmin = 2.18725e-010
Gmin = 2.34854e-011
Gmin = 2.52173e-012
Gmin = 2.70769e-013
Gmin = 0
Gmin stepping succeeded in finding the operating point.


Date: Thu Dec 07 20:59:40 2023
Total elapsed time: 0.104 seconds.

tnom = 27
temp = 27
method = modified trap
totiter = 3028
traniter = 2538
tranpoints = 1177
accept = 1135
rejected = 42
matrix size = 16
fillins = 1
solver = Normal
Matrix Compiler1:      39 opcodes  0.2/[0.1]/0.1
Matrix Compiler2: 1.28 KB object code size  0.2/0.2/[0.1]

