Circuit: * C:\Users\kylew\Documents\GitHub\Lifting-Body\Pyro Tester\SPICE Sims\Diff_Amp.asc

Fatal Error: Unknown subcircuit called in:
   xu1 n003 n005 n004 opamp aol=100k gbw=10meg
