Circuit: * C:\Users\kylew\Documents\GitHub\Lifting-Body\Pyro Tester\SPICE Sims\Power_Transistor_Take_3.asc

Limiting rise time of source v2 to 2e-005
Limiting fall time of source v2 to 2e-005
Direct Newton iteration for .op point succeeded.

Date: Sat May 15 10:44:50 2021
Total elapsed time: 0.857 seconds.

tnom = 27
temp = 27
method = modified trap
totiter = 163057
traniter = 163026
tranpoints = 58857
accept = 46659
rejected = 12198
matrix size = 15
fillins = 1
solver = Normal
Matrix Compiler1: 650 bytes object code size  0.1/0.1/[0.1]
Matrix Compiler2: 1.11 KB object code size  0.1/0.1/[0.1]

