Circuit: * C:\Users\kylew\Documents\GitHub\Lifting-Body\Pyro Tester\SPICE Sims\Power_Transistor_Take_2.asc

Limiting rise time of source v2 to 2e-005
Limiting fall time of source v2 to 2e-005
Direct Newton iteration for .op point succeeded.

Date: Fri May 14 08:29:39 2021
Total elapsed time: 2.237 seconds.

tnom = 27
temp = 27
method = modified trap
totiter = 409568
traniter = 409537
tranpoints = 122340
accept = 95597
rejected = 26743
matrix size = 14
fillins = 0
solver = Normal
Matrix Compiler1: 564 bytes object code size  0.1/0.1/[0.1]
Matrix Compiler2: off  [0.1]/0.1/0.1

