Circuit: * C:\Users\kylew\Documents\GitHub\Lifting-Body\Pyro Tester\SPICE Sims\PWM_5A_Test.asc

Limiting rise time of source v2 to 5e-006
Limiting fall time of source v2 to 5e-006
Direct Newton iteration for .op point succeeded.

Date: Thu May 13 00:55:11 2021
Total elapsed time: 0.494 seconds.

tnom = 27
temp = 27
method = modified trap
totiter = 252158
traniter = 252153
tranpoints = 80823
accept = 58792
rejected = 22031
matrix size = 11
fillins = 0
solver = Normal
Matrix Compiler1:      30 opcodes  0.1/[0.1]/0.1
Matrix Compiler2: 807 bytes object code size  0.1/0.1/[0.1]

