Circuit: * C:\Users\kylew\Documents\GitHub\Lifting-Body\Pyro Tester\SPICE Sims\PWM_5A_Test_PowerTransistor.asc

Limiting rise time of source v2 to 1e-006
Limiting fall time of source v2 to 1e-006
Direct Newton iteration for .op point succeeded.

Date: Thu May 13 23:47:57 2021
Total elapsed time: 1.087 seconds.

tnom = 27
temp = 27
method = modified trap
totiter = 433131
traniter = 433108
tranpoints = 129623
accept = 96933
rejected = 32690
matrix size = 20
fillins = 0
solver = Normal
Matrix Compiler1: 1.23 KB object code size  0.2/0.1/[0.1]
Matrix Compiler2: off  [0.1]/0.2/0.1

